Network_data/Network_model/Feeder1/OpenDSS_Loads.txt
New Load.Feeder1_LOAD1 Phases=1 Bus1=Feeder1_90.1 kV=0.23094 kW=0 Kvar=0 Model=8 Vminpu=0.8 Vmaxpu=1.2 ZIPV=[0 0 1 0 0 1 0.8]
New Load.Feeder1_LOAD2 Phases=1 Bus1=Feeder1_159.2 kV=0.23094 kW=0 Kvar=0 Model=8 Vminpu=0.8 Vmaxpu=1.2 ZIPV=[0 0 1 0 0 1 0.8]
New Load.Feeder1_LOAD3 Phases=1 Bus1=Feeder1_160.3 kV=0.23094 kW=0 Kvar=0 Model=8 Vminpu=0.8 Vmaxpu=1.2 ZIPV=[0 0 1 0 0 1 0.8]
New Load.Feeder1_LOAD4 Phases=1 Bus1=Feeder1_161.1 kV=0.23094 kW=0 Kvar=0 Model=8 Vminpu=0.8 Vmaxpu=1.2 ZIPV=[0 0 1 0 0 1 0.8]
New Load.Feeder1_LOAD5 Phases=1 Bus1=Feeder1_162.2 kV=0.23094 kW=0 Kvar=0 Model=8 Vminpu=0.8 Vmaxpu=1.2 ZIPV=[0 0 1 0 0 1 0.8]
New Load.Feeder1_LOAD6 Phases=1 Bus1=Feeder1_163.3 kV=0.23094 kW=0 Kvar=0 Model=8 Vminpu=0.8 Vmaxpu=1.2 ZIPV=[0 0 1 0 0 1 0.8]
New Load.Feeder1_LOAD7 Phases=1 Bus1=Feeder1_164.1 kV=0.23094 kW=0 Kvar=0 Model=8 Vminpu=0.8 Vmaxpu=1.2 ZIPV=[0 0 1 0 0 1 0.8]
New Load.Feeder1_LOAD8 Phases=1 Bus1=Feeder1_165.2 kV=0.23094 kW=0 Kvar=0 Model=8 Vminpu=0.8 Vmaxpu=1.2 ZIPV=[0 0 1 0 0 1 0.8]
New Load.Feeder1_LOAD9 Phases=1 Bus1=Feeder1_166.3 kV=0.23094 kW=0 Kvar=0 Model=8 Vminpu=0.8 Vmaxpu=1.2 ZIPV=[0 0 1 0 0 1 0.8]
New Load.Feeder1_LOAD10 Phases=1 Bus1=Feeder1_167.1 kV=0.23094 kW=0 Kvar=0 Model=8 Vminpu=0.8 Vmaxpu=1.2 ZIPV=[0 0 1 0 0 1 0.8]
New Load.Feeder1_LOAD11 Phases=1 Bus1=Feeder1_168.2 kV=0.23094 kW=0 Kvar=0 Model=8 Vminpu=0.8 Vmaxpu=1.2 ZIPV=[0 0 1 0 0 1 0.8]
New Load.Feeder1_LOAD12 Phases=1 Bus1=Feeder1_169.3 kV=0.23094 kW=0 Kvar=0 Model=8 Vminpu=0.8 Vmaxpu=1.2 ZIPV=[0 0 1 0 0 1 0.8]
New Load.Feeder1_LOAD13 Phases=1 Bus1=Feeder1_170.1 kV=0.23094 kW=0 Kvar=0 Model=8 Vminpu=0.8 Vmaxpu=1.2 ZIPV=[0 0 1 0 0 1 0.8]
New Load.Feeder1_LOAD14 Phases=1 Bus1=Feeder1_171.2 kV=0.23094 kW=0 Kvar=0 Model=8 Vminpu=0.8 Vmaxpu=1.2 ZIPV=[0 0 1 0 0 1 0.8]
New Load.Feeder1_LOAD15 Phases=1 Bus1=Feeder1_172.3 kV=0.23094 kW=0 Kvar=0 Model=8 Vminpu=0.8 Vmaxpu=1.2 ZIPV=[0 0 1 0 0 1 0.8]
New Load.Feeder1_LOAD16 Phases=1 Bus1=Feeder1_173.1 kV=0.23094 kW=0 Kvar=0 Model=8 Vminpu=0.8 Vmaxpu=1.2 ZIPV=[0 0 1 0 0 1 0.8]
New Load.Feeder1_LOAD17 Phases=1 Bus1=Feeder1_174.2 kV=0.23094 kW=0 Kvar=0 Model=8 Vminpu=0.8 Vmaxpu=1.2 ZIPV=[0 0 1 0 0 1 0.8]
New Load.Feeder1_LOAD18 Phases=1 Bus1=Feeder1_175.3 kV=0.23094 kW=0 Kvar=0 Model=8 Vminpu=0.8 Vmaxpu=1.2 ZIPV=[0 0 1 0 0 1 0.8]
New Load.Feeder1_LOAD19 Phases=1 Bus1=Feeder1_176.1 kV=0.23094 kW=0 Kvar=0 Model=8 Vminpu=0.8 Vmaxpu=1.2 ZIPV=[0 0 1 0 0 1 0.8]
New Load.Feeder1_LOAD20 Phases=1 Bus1=Feeder1_177.2 kV=0.23094 kW=0 Kvar=0 Model=8 Vminpu=0.8 Vmaxpu=1.2 ZIPV=[0 0 1 0 0 1 0.8]
New Load.Feeder1_LOAD21 Phases=1 Bus1=Feeder1_178.3 kV=0.23094 kW=0 Kvar=0 Model=8 Vminpu=0.8 Vmaxpu=1.2 ZIPV=[0 0 1 0 0 1 0.8]
New Load.Feeder1_LOAD22 Phases=1 Bus1=Feeder1_179.1 kV=0.23094 kW=0 Kvar=0 Model=8 Vminpu=0.8 Vmaxpu=1.2 ZIPV=[0 0 1 0 0 1 0.8]
New Load.Feeder1_LOAD23 Phases=1 Bus1=Feeder1_180.2 kV=0.23094 kW=0 Kvar=0 Model=8 Vminpu=0.8 Vmaxpu=1.2 ZIPV=[0 0 1 0 0 1 0.8]
New Load.Feeder1_LOAD24 Phases=1 Bus1=Feeder1_181.3 kV=0.23094 kW=0 Kvar=0 Model=8 Vminpu=0.8 Vmaxpu=1.2 ZIPV=[0 0 1 0 0 1 0.8]
New Load.Feeder1_LOAD25 Phases=1 Bus1=Feeder1_182.1 kV=0.23094 kW=0 Kvar=0 Model=8 Vminpu=0.8 Vmaxpu=1.2 ZIPV=[0 0 1 0 0 1 0.8]
New Load.Feeder1_LOAD26 Phases=1 Bus1=Feeder1_183.2 kV=0.23094 kW=0 Kvar=0 Model=8 Vminpu=0.8 Vmaxpu=1.2 ZIPV=[0 0 1 0 0 1 0.8]
New Load.Feeder1_LOAD27 Phases=1 Bus1=Feeder1_197.3 kV=0.23094 kW=0 Kvar=0 Model=8 Vminpu=0.8 Vmaxpu=1.2 ZIPV=[0 0 1 0 0 1 0.8]
New Load.Feeder1_LOAD28 Phases=1 Bus1=Feeder1_198.1 kV=0.23094 kW=0 Kvar=0 Model=8 Vminpu=0.8 Vmaxpu=1.2 ZIPV=[0 0 1 0 0 1 0.8]
New Load.Feeder1_LOAD29 Phases=1 Bus1=Feeder1_199.2 kV=0.23094 kW=0 Kvar=0 Model=8 Vminpu=0.8 Vmaxpu=1.2 ZIPV=[0 0 1 0 0 1 0.8]
New Load.Feeder1_LOAD30 Phases=1 Bus1=Feeder1_200.3 kV=0.23094 kW=0 Kvar=0 Model=8 Vminpu=0.8 Vmaxpu=1.2 ZIPV=[0 0 1 0 0 1 0.8]
New Load.Feeder1_LOAD31 Phases=1 Bus1=Feeder1_201.1 kV=0.23094 kW=0 Kvar=0 Model=8 Vminpu=0.8 Vmaxpu=1.2 ZIPV=[0 0 1 0 0 1 0.8]
New Load.Feeder1_LOAD32 Phases=1 Bus1=Feeder1_202.2 kV=0.23094 kW=0 Kvar=0 Model=8 Vminpu=0.8 Vmaxpu=1.2 ZIPV=[0 0 1 0 0 1 0.8]
New Load.Feeder1_LOAD33 Phases=1 Bus1=Feeder1_203.3 kV=0.23094 kW=0 Kvar=0 Model=8 Vminpu=0.8 Vmaxpu=1.2 ZIPV=[0 0 1 0 0 1 0.8]
New Load.Feeder1_LOAD34 Phases=1 Bus1=Feeder1_204.1 kV=0.23094 kW=0 Kvar=0 Model=8 Vminpu=0.8 Vmaxpu=1.2 ZIPV=[0 0 1 0 0 1 0.8]
New Load.Feeder1_LOAD35 Phases=1 Bus1=Feeder1_205.2 kV=0.23094 kW=0 Kvar=0 Model=8 Vminpu=0.8 Vmaxpu=1.2 ZIPV=[0 0 1 0 0 1 0.8]
New Load.Feeder1_LOAD36 Phases=1 Bus1=Feeder1_206.3 kV=0.23094 kW=0 Kvar=0 Model=8 Vminpu=0.8 Vmaxpu=1.2 ZIPV=[0 0 1 0 0 1 0.8]
New Load.Feeder1_LOAD37 Phases=1 Bus1=Feeder1_207.1 kV=0.23094 kW=0 Kvar=0 Model=8 Vminpu=0.8 Vmaxpu=1.2 ZIPV=[0 0 1 0 0 1 0.8]
New Load.Feeder1_LOAD38 Phases=1 Bus1=Feeder1_208.2 kV=0.23094 kW=0 Kvar=0 Model=8 Vminpu=0.8 Vmaxpu=1.2 ZIPV=[0 0 1 0 0 1 0.8]
New Load.Feeder1_LOAD39 Phases=1 Bus1=Feeder1_209.3 kV=0.23094 kW=0 Kvar=0 Model=8 Vminpu=0.8 Vmaxpu=1.2 ZIPV=[0 0 1 0 0 1 0.8]
New Load.Feeder1_LOAD40 Phases=1 Bus1=Feeder1_210.1 kV=0.23094 kW=0 Kvar=0 Model=8 Vminpu=0.8 Vmaxpu=1.2 ZIPV=[0 0 1 0 0 1 0.8]
New Load.Feeder1_LOAD41 Phases=1 Bus1=Feeder1_211.2 kV=0.23094 kW=0 Kvar=0 Model=8 Vminpu=0.8 Vmaxpu=1.2 ZIPV=[0 0 1 0 0 1 0.8]
New Load.Feeder1_LOAD42 Phases=1 Bus1=Feeder1_212.3 kV=0.23094 kW=0 Kvar=0 Model=8 Vminpu=0.8 Vmaxpu=1.2 ZIPV=[0 0 1 0 0 1 0.8]
New Load.Feeder1_LOAD43 Phases=1 Bus1=Feeder1_213.1 kV=0.23094 kW=0 Kvar=0 Model=8 Vminpu=0.8 Vmaxpu=1.2 ZIPV=[0 0 1 0 0 1 0.8]
New Load.Feeder1_LOAD44 Phases=1 Bus1=Feeder1_214.2 kV=0.23094 kW=0 Kvar=0 Model=8 Vminpu=0.8 Vmaxpu=1.2 ZIPV=[0 0 1 0 0 1 0.8]
New Load.Feeder1_LOAD45 Phases=1 Bus1=Feeder1_215.3 kV=0.23094 kW=0 Kvar=0 Model=8 Vminpu=0.8 Vmaxpu=1.2 ZIPV=[0 0 1 0 0 1 0.8]
New Load.Feeder1_LOAD46 Phases=1 Bus1=Feeder1_216.1 kV=0.23094 kW=0 Kvar=0 Model=8 Vminpu=0.8 Vmaxpu=1.2 ZIPV=[0 0 1 0 0 1 0.8]
New Load.Feeder1_LOAD47 Phases=1 Bus1=Feeder1_217.2 kV=0.23094 kW=0 Kvar=0 Model=8 Vminpu=0.8 Vmaxpu=1.2 ZIPV=[0 0 1 0 0 1 0.8]
New Load.Feeder1_LOAD48 Phases=1 Bus1=Feeder1_218.3 kV=0.23094 kW=0 Kvar=0 Model=8 Vminpu=0.8 Vmaxpu=1.2 ZIPV=[0 0 1 0 0 1 0.8]
New Load.Feeder1_LOAD49 Phases=1 Bus1=Feeder1_219.1 kV=0.23094 kW=0 Kvar=0 Model=8 Vminpu=0.8 Vmaxpu=1.2 ZIPV=[0 0 1 0 0 1 0.8]
New Load.Feeder1_LOAD50 Phases=1 Bus1=Feeder1_220.2 kV=0.23094 kW=0 Kvar=0 Model=8 Vminpu=0.8 Vmaxpu=1.2 ZIPV=[0 0 1 0 0 1 0.8]
New Load.Feeder1_LOAD51 Phases=1 Bus1=Feeder1_221.3 kV=0.23094 kW=0 Kvar=0 Model=8 Vminpu=0.8 Vmaxpu=1.2 ZIPV=[0 0 1 0 0 1 0.8]
New Load.Feeder1_LOAD52 Phases=1 Bus1=Feeder1_222.1 kV=0.23094 kW=0 Kvar=0 Model=8 Vminpu=0.8 Vmaxpu=1.2 ZIPV=[0 0 1 0 0 1 0.8]
New Load.Feeder1_LOAD53 Phases=1 Bus1=Feeder1_223.2 kV=0.23094 kW=0 Kvar=0 Model=8 Vminpu=0.8 Vmaxpu=1.2 ZIPV=[0 0 1 0 0 1 0.8]
New Load.Feeder1_LOAD54 Phases=1 Bus1=Feeder1_224.3 kV=0.23094 kW=0 Kvar=0 Model=8 Vminpu=0.8 Vmaxpu=1.2 ZIPV=[0 0 1 0 0 1 0.8]
New Load.Feeder1_LOAD55 Phases=1 Bus1=Feeder1_225.1 kV=0.23094 kW=0 Kvar=0 Model=8 Vminpu=0.8 Vmaxpu=1.2 ZIPV=[0 0 1 0 0 1 0.8]
New Load.Feeder1_LOAD56 Phases=1 Bus1=Feeder1_226.2 kV=0.23094 kW=0 Kvar=0 Model=8 Vminpu=0.8 Vmaxpu=1.2 ZIPV=[0 0 1 0 0 1 0.8]
New Load.Feeder1_LOAD57 Phases=1 Bus1=Feeder1_227.3 kV=0.23094 kW=0 Kvar=0 Model=8 Vminpu=0.8 Vmaxpu=1.2 ZIPV=[0 0 1 0 0 1 0.8]
New Load.Feeder1_LOAD58 Phases=1 Bus1=Feeder1_228.1 kV=0.23094 kW=0 Kvar=0 Model=8 Vminpu=0.8 Vmaxpu=1.2 ZIPV=[0 0 1 0 0 1 0.8]
New Load.Feeder1_LOAD59 Phases=1 Bus1=Feeder1_229.2 kV=0.23094 kW=0 Kvar=0 Model=8 Vminpu=0.8 Vmaxpu=1.2 ZIPV=[0 0 1 0 0 1 0.8]
New Load.Feeder1_LOAD60 Phases=1 Bus1=Feeder1_235.3 kV=0.23094 kW=0 Kvar=0 Model=8 Vminpu=0.8 Vmaxpu=1.2 ZIPV=[0 0 1 0 0 1 0.8]
New Load.Feeder1_LOAD61 Phases=1 Bus1=Feeder1_273.3 kV=0.23094 kW=0 Kvar=0 Model=8 Vminpu=0.8 Vmaxpu=1.2 ZIPV=[0 0 1 0 0 1 0.8]
New Load.Feeder1_LOAD62 Phases=1 Bus1=Feeder1_296.3 kV=0.23094 kW=0 Kvar=0 Model=8 Vminpu=0.8 Vmaxpu=1.2 ZIPV=[0 0 1 0 0 1 0.8]
New Load.Feeder1_LOAD63 Phases=1 Bus1=Feeder1_298.3 kV=0.23094 kW=0 Kvar=0 Model=8 Vminpu=0.8 Vmaxpu=1.2 ZIPV=[0 0 1 0 0 1 0.8]
New Load.Feeder1_LOAD64 Phases=1 Bus1=Feeder1_316.1 kV=0.23094 kW=0 Kvar=0 Model=8 Vminpu=0.8 Vmaxpu=1.2 ZIPV=[0 0 1 0 0 1 0.8]
New Load.Feeder1_LOAD65 Phases=1 Bus1=Feeder1_327.2 kV=0.23094 kW=0 Kvar=0 Model=8 Vminpu=0.8 Vmaxpu=1.2 ZIPV=[0 0 1 0 0 1 0.8]
New Load.Feeder1_LOAD66 Phases=1 Bus1=Feeder1_331.1 kV=0.23094 kW=0 Kvar=0 Model=8 Vminpu=0.8 Vmaxpu=1.2 ZIPV=[0 0 1 0 0 1 0.8]
New Load.Feeder1_LOAD67 Phases=1 Bus1=Feeder1_332.2 kV=0.23094 kW=0 Kvar=0 Model=8 Vminpu=0.8 Vmaxpu=1.2 ZIPV=[0 0 1 0 0 1 0.8]
New Load.Feeder1_LOAD68 Phases=1 Bus1=Feeder1_371.3 kV=0.23094 kW=0 Kvar=0 Model=8 Vminpu=0.8 Vmaxpu=1.2 ZIPV=[0 0 1 0 0 1 0.8]
New Load.Feeder1_LOAD69 Phases=1 Bus1=Feeder1_372.2 kV=0.23094 kW=0 Kvar=0 Model=8 Vminpu=0.8 Vmaxpu=1.2 ZIPV=[0 0 1 0 0 1 0.8]
New Load.Feeder1_LOAD70 Phases=1 Bus1=Feeder1_428.2 kV=0.23094 kW=0 Kvar=0 Model=8 Vminpu=0.8 Vmaxpu=1.2 ZIPV=[0 0 1 0 0 1 0.8]
New Load.Feeder1_LOAD71 Phases=1 Bus1=Feeder1_429.3 kV=0.23094 kW=0 Kvar=0 Model=8 Vminpu=0.8 Vmaxpu=1.2 ZIPV=[0 0 1 0 0 1 0.8]
New Load.Feeder1_LOAD72 Phases=1 Bus1=Feeder1_515.1 kV=0.23094 kW=0 Kvar=0 Model=8 Vminpu=0.8 Vmaxpu=1.2 ZIPV=[0 0 1 0 0 1 0.8]
New Load.Feeder1_LOAD73 Phases=1 Bus1=Feeder1_547.1 kV=0.23094 kW=0 Kvar=0 Model=8 Vminpu=0.8 Vmaxpu=1.2 ZIPV=[0 0 1 0 0 1 0.8]
New Load.Feeder1_LOAD74 Phases=1 Bus1=Feeder1_554.1 kV=0.23094 kW=0 Kvar=0 Model=8 Vminpu=0.8 Vmaxpu=1.2 ZIPV=[0 0 1 0 0 1 0.8]
New Load.Feeder1_LOAD75 Phases=1 Bus1=Feeder1_586.1 kV=0.23094 kW=0 Kvar=0 Model=8 Vminpu=0.8 Vmaxpu=1.2 ZIPV=[0 0 1 0 0 1 0.8]
New Load.Feeder1_LOAD76 Phases=1 Bus1=Feeder1_851.2 kV=0.23094 kW=0 Kvar=0 Model=8 Vminpu=0.8 Vmaxpu=1.2 ZIPV=[0 0 1 0 0 1 0.8]
New Load.Feeder1_LOAD77 Phases=1 Bus1=Feeder1_916.3 kV=0.23094 kW=0 Kvar=0 Model=8 Vminpu=0.8 Vmaxpu=1.2 ZIPV=[0 0 1 0 0 1 0.8]
New Load.Feeder1_LOAD78 Phases=1 Bus1=Feeder1_1066.2 kV=0.23094 kW=0 Kvar=0 Model=8 Vminpu=0.8 Vmaxpu=1.2 ZIPV=[0 0 1 0 0 1 0.8]
New Load.Feeder1_LOAD79 Phases=1 Bus1=Feeder1_1174.3 kV=0.23094 kW=0 Kvar=0 Model=8 Vminpu=0.8 Vmaxpu=1.2 ZIPV=[0 0 1 0 0 1 0.8]
New Load.Feeder1_LOAD80 Phases=1 Bus1=Feeder1_1251.1 kV=0.23094 kW=0 Kvar=0 Model=8 Vminpu=0.8 Vmaxpu=1.2 ZIPV=[0 0 1 0 0 1 0.8]
New Load.Feeder1_LOAD81 Phases=1 Bus1=Feeder1_1263.2 kV=0.23094 kW=0 Kvar=0 Model=8 Vminpu=0.8 Vmaxpu=1.2 ZIPV=[0 0 1 0 0 1 0.8]
New Load.Feeder1_LOAD82 Phases=1 Bus1=Feeder1_1328.3 kV=0.23094 kW=0 Kvar=0 Model=8 Vminpu=0.8 Vmaxpu=1.2 ZIPV=[0 0 1 0 0 1 0.8]
New Load.Feeder1_LOAD83 Phases=1 Bus1=Feeder1_1427.3 kV=0.23094 kW=0 Kvar=0 Model=8 Vminpu=0.8 Vmaxpu=1.2 ZIPV=[0 0 1 0 0 1 0.8]
New Load.Feeder1_LOAD84 Phases=1 Bus1=Feeder1_1448.1 kV=0.23094 kW=0 Kvar=0 Model=8 Vminpu=0.8 Vmaxpu=1.2 ZIPV=[0 0 1 0 0 1 0.8]
New Load.Feeder1_LOAD85 Phases=1 Bus1=Feeder1_1483.2 kV=0.23094 kW=0 Kvar=0 Model=8 Vminpu=0.8 Vmaxpu=1.2 ZIPV=[0 0 1 0 0 1 0.8]
New Load.Feeder1_LOAD86 Phases=1 Bus1=Feeder1_1545.2 kV=0.23094 kW=0 Kvar=0 Model=8 Vminpu=0.8 Vmaxpu=1.2 ZIPV=[0 0 1 0 0 1 0.8]
New Load.Feeder1_LOAD87 Phases=1 Bus1=Feeder1_1564.3 kV=0.23094 kW=0 Kvar=0 Model=8 Vminpu=0.8 Vmaxpu=1.2 ZIPV=[0 0 1 0 0 1 0.8]
New Load.Feeder1_LOAD88 Phases=1 Bus1=Feeder1_1646.1 kV=0.23094 kW=0 Kvar=0 Model=8 Vminpu=0.8 Vmaxpu=1.2 ZIPV=[0 0 1 0 0 1 0.8]
New Load.Feeder1_LOAD89 Phases=1 Bus1=Feeder1_1647.2 kV=0.23094 kW=0 Kvar=0 Model=8 Vminpu=0.8 Vmaxpu=1.2 ZIPV=[0 0 1 0 0 1 0.8]
New Load.Feeder1_LOAD90 Phases=1 Bus1=Feeder1_1655.2 kV=0.23094 kW=0 Kvar=0 Model=8 Vminpu=0.8 Vmaxpu=1.2 ZIPV=[0 0 1 0 0 1 0.8]
New Load.Feeder1_LOAD91 Phases=1 Bus1=Feeder1_1673.1 kV=0.23094 kW=0 Kvar=0 Model=8 Vminpu=0.8 Vmaxpu=1.2 ZIPV=[0 0 1 0 0 1 0.8]
New Load.Feeder1_LOAD92 Phases=1 Bus1=Feeder1_1679.3 kV=0.23094 kW=0 Kvar=0 Model=8 Vminpu=0.8 Vmaxpu=1.2 ZIPV=[0 0 1 0 0 1 0.8]
New Load.Feeder1_LOAD93 Phases=1 Bus1=Feeder1_1682.1 kV=0.23094 kW=0 Kvar=0 Model=8 Vminpu=0.8 Vmaxpu=1.2 ZIPV=[0 0 1 0 0 1 0.8]
New Load.Feeder1_LOAD94 Phases=1 Bus1=Feeder1_1723.3 kV=0.23094 kW=0 Kvar=0 Model=8 Vminpu=0.8 Vmaxpu=1.2 ZIPV=[0 0 1 0 0 1 0.8]
New Load.Feeder1_LOAD95 Phases=1 Bus1=Feeder1_1759.2 kV=0.23094 kW=0 Kvar=0 Model=8 Vminpu=0.8 Vmaxpu=1.2 ZIPV=[0 0 1 0 0 1 0.8]
New Load.Feeder1_LOAD96 Phases=1 Bus1=Feeder1_1762.2 kV=0.23094 kW=0 Kvar=0 Model=8 Vminpu=0.8 Vmaxpu=1.2 ZIPV=[0 0 1 0 0 1 0.8]
New Load.Feeder1_LOAD97 Phases=1 Bus1=Feeder1_1806.1 kV=0.23094 kW=0 Kvar=0 Model=8 Vminpu=0.8 Vmaxpu=1.2 ZIPV=[0 0 1 0 0 1 0.8]
New Load.Feeder1_LOAD98 Phases=1 Bus1=Feeder1_1840.1 kV=0.23094 kW=0 Kvar=0 Model=8 Vminpu=0.8 Vmaxpu=1.2 ZIPV=[0 0 1 0 0 1 0.8]
New Load.Feeder1_LOAD99 Phases=1 Bus1=Feeder1_1843.2 kV=0.23094 kW=0 Kvar=0 Model=8 Vminpu=0.8 Vmaxpu=1.2 ZIPV=[0 0 1 0 0 1 0.8]
New Load.Feeder1_LOAD100 Phases=1 Bus1=Feeder1_1859.3 kV=0.23094 kW=0 Kvar=0 Model=8 Vminpu=0.8 Vmaxpu=1.2 ZIPV=[0 0 1 0 0 1 0.8]
New Load.Feeder1_LOAD101 Phases=1 Bus1=Feeder1_1900.1 kV=0.23094 kW=0 Kvar=0 Model=8 Vminpu=0.8 Vmaxpu=1.2 ZIPV=[0 0 1 0 0 1 0.8]
New Load.Feeder1_LOAD102 Phases=1 Bus1=Feeder1_1905.3 kV=0.23094 kW=0 Kvar=0 Model=8 Vminpu=0.8 Vmaxpu=1.2 ZIPV=[0 0 1 0 0 1 0.8]
New Load.Feeder1_LOAD103 Phases=1 Bus1=Feeder1_1907.1 kV=0.23094 kW=0 Kvar=0 Model=8 Vminpu=0.8 Vmaxpu=1.2 ZIPV=[0 0 1 0 0 1 0.8]
New Load.Feeder1_LOAD104 Phases=1 Bus1=Feeder1_1961.1 kV=0.23094 kW=0 Kvar=0 Model=8 Vminpu=0.8 Vmaxpu=1.2 ZIPV=[0 0 1 0 0 1 0.8]
New Load.Feeder1_LOAD105 Phases=1 Bus1=Feeder1_1986.2 kV=0.23094 kW=0 Kvar=0 Model=8 Vminpu=0.8 Vmaxpu=1.2 ZIPV=[0 0 1 0 0 1 0.8]
New Load.Feeder1_LOAD106 Phases=1 Bus1=Feeder1_1999.3 kV=0.23094 kW=0 Kvar=0 Model=8 Vminpu=0.8 Vmaxpu=1.2 ZIPV=[0 0 1 0 0 1 0.8]
New Load.Feeder1_LOAD107 Phases=1 Bus1=Feeder1_2016.2 kV=0.23094 kW=0 Kvar=0 Model=8 Vminpu=0.8 Vmaxpu=1.2 ZIPV=[0 0 1 0 0 1 0.8]
New Load.Feeder1_LOAD108 Phases=1 Bus1=Feeder1_2075.2 kV=0.23094 kW=0 Kvar=0 Model=8 Vminpu=0.8 Vmaxpu=1.2 ZIPV=[0 0 1 0 0 1 0.8]
New Load.Feeder1_LOAD109 Phases=1 Bus1=Feeder1_2091.3 kV=0.23094 kW=0 Kvar=0 Model=8 Vminpu=0.8 Vmaxpu=1.2 ZIPV=[0 0 1 0 0 1 0.8]
New Load.Feeder1_LOAD110 Phases=1 Bus1=Feeder1_2119.2 kV=0.23094 kW=0 Kvar=0 Model=8 Vminpu=0.8 Vmaxpu=1.2 ZIPV=[0 0 1 0 0 1 0.8]
New Load.Feeder1_LOAD111 Phases=1 Bus1=Feeder1_2135.2 kV=0.23094 kW=0 Kvar=0 Model=8 Vminpu=0.8 Vmaxpu=1.2 ZIPV=[0 0 1 0 0 1 0.8]
New Load.Feeder1_LOAD112 Phases=1 Bus1=Feeder1_2172.1 kV=0.23094 kW=0 Kvar=0 Model=8 Vminpu=0.8 Vmaxpu=1.2 ZIPV=[0 0 1 0 0 1 0.8]
New Load.Feeder1_LOAD113 Phases=1 Bus1=Feeder1_2265.2 kV=0.23094 kW=0 Kvar=0 Model=8 Vminpu=0.8 Vmaxpu=1.2 ZIPV=[0 0 1 0 0 1 0.8]
New Load.Feeder1_LOAD114 Phases=1 Bus1=Feeder1_2282.2 kV=0.23094 kW=0 Kvar=0 Model=8 Vminpu=0.8 Vmaxpu=1.2 ZIPV=[0 0 1 0 0 1 0.8]
New Load.Feeder1_LOAD115 Phases=1 Bus1=Feeder1_2289.3 kV=0.23094 kW=0 Kvar=0 Model=8 Vminpu=0.8 Vmaxpu=1.2 ZIPV=[0 0 1 0 0 1 0.8]
New Load.Feeder1_LOAD116 Phases=1 Bus1=Feeder1_2290.1 kV=0.23094 kW=0 Kvar=0 Model=8 Vminpu=0.8 Vmaxpu=1.2 ZIPV=[0 0 1 0 0 1 0.8]
New Load.Feeder1_LOAD117 Phases=1 Bus1=Feeder1_2311.2 kV=0.23094 kW=0 Kvar=0 Model=8 Vminpu=0.8 Vmaxpu=1.2 ZIPV=[0 0 1 0 0 1 0.8]
New Load.Feeder1_LOAD118 Phases=1 Bus1=Feeder1_2318.1 kV=0.23094 kW=0 Kvar=0 Model=8 Vminpu=0.8 Vmaxpu=1.2 ZIPV=[0 0 1 0 0 1 0.8]
New Load.Feeder1_LOAD119 Phases=1 Bus1=Feeder1_2324.1 kV=0.23094 kW=0 Kvar=0 Model=8 Vminpu=0.8 Vmaxpu=1.2 ZIPV=[0 0 1 0 0 1 0.8]
New Load.Feeder1_LOAD120 Phases=1 Bus1=Feeder1_2366.3 kV=0.23094 kW=0 Kvar=0 Model=8 Vminpu=0.8 Vmaxpu=1.2 ZIPV=[0 0 1 0 0 1 0.8]
New Load.Feeder1_LOAD121 Phases=1 Bus1=Feeder1_2454.2 kV=0.23094 kW=0 Kvar=0 Model=8 Vminpu=0.8 Vmaxpu=1.2 ZIPV=[0 0 1 0 0 1 0.8]
New Load.Feeder1_LOAD122 Phases=1 Bus1=Feeder1_2465.2 kV=0.23094 kW=0 Kvar=0 Model=8 Vminpu=0.8 Vmaxpu=1.2 ZIPV=[0 0 1 0 0 1 0.8]
New Load.Feeder1_LOAD123 Phases=1 Bus1=Feeder1_2477.3 kV=0.23094 kW=0 Kvar=0 Model=8 Vminpu=0.8 Vmaxpu=1.2 ZIPV=[0 0 1 0 0 1 0.8]
New Load.Feeder1_LOAD124 Phases=1 Bus1=Feeder1_2511.3 kV=0.23094 kW=0 Kvar=0 Model=8 Vminpu=0.8 Vmaxpu=1.2 ZIPV=[0 0 1 0 0 1 0.8]
New Load.Feeder1_LOAD125 Phases=1 Bus1=Feeder1_2534.2 kV=0.23094 kW=0 Kvar=0 Model=8 Vminpu=0.8 Vmaxpu=1.2 ZIPV=[0 0 1 0 0 1 0.8]
New Load.Feeder1_LOAD126 Phases=1 Bus1=Feeder1_2555.2 kV=0.23094 kW=0 Kvar=0 Model=8 Vminpu=0.8 Vmaxpu=1.2 ZIPV=[0 0 1 0 0 1 0.8]
New Load.Feeder1_LOAD127 Phases=1 Bus1=Feeder1_2565.1 kV=0.23094 kW=0 Kvar=0 Model=8 Vminpu=0.8 Vmaxpu=1.2 ZIPV=[0 0 1 0 0 1 0.8]
New Load.Feeder1_LOAD128 Phases=1 Bus1=Feeder1_2591.3 kV=0.23094 kW=0 Kvar=0 Model=8 Vminpu=0.8 Vmaxpu=1.2 ZIPV=[0 0 1 0 0 1 0.8]
New Load.Feeder1_LOAD129 Phases=1 Bus1=Feeder1_2673.2 kV=0.23094 kW=0 Kvar=0 Model=8 Vminpu=0.8 Vmaxpu=1.2 ZIPV=[0 0 1 0 0 1 0.8]
New Load.Feeder1_LOAD130 Phases=1 Bus1=Feeder1_2675.3 kV=0.23094 kW=0 Kvar=0 Model=8 Vminpu=0.8 Vmaxpu=1.2 ZIPV=[0 0 1 0 0 1 0.8]
New Load.Feeder1_LOAD131 Phases=1 Bus1=Feeder1_2687.3 kV=0.23094 kW=0 Kvar=0 Model=8 Vminpu=0.8 Vmaxpu=1.2 ZIPV=[0 0 1 0 0 1 0.8]
New Load.Feeder1_LOAD132 Phases=1 Bus1=Feeder1_2693.1 kV=0.23094 kW=0 Kvar=0 Model=8 Vminpu=0.8 Vmaxpu=1.2 ZIPV=[0 0 1 0 0 1 0.8]
New Load.Feeder1_LOAD133 Phases=1 Bus1=Feeder1_2696.3 kV=0.23094 kW=0 Kvar=0 Model=8 Vminpu=0.8 Vmaxpu=1.2 ZIPV=[0 0 1 0 0 1 0.8]
New Load.Feeder1_LOAD134 Phases=1 Bus1=Feeder1_2709.1 kV=0.23094 kW=0 Kvar=0 Model=8 Vminpu=0.8 Vmaxpu=1.2 ZIPV=[0 0 1 0 0 1 0.8]
New Load.Feeder1_LOAD135 Phases=1 Bus1=Feeder1_2711.1 kV=0.23094 kW=0 Kvar=0 Model=8 Vminpu=0.8 Vmaxpu=1.2 ZIPV=[0 0 1 0 0 1 0.8]
New Load.Feeder1_LOAD136 Phases=1 Bus1=Feeder1_2736.3 kV=0.23094 kW=0 Kvar=0 Model=8 Vminpu=0.8 Vmaxpu=1.2 ZIPV=[0 0 1 0 0 1 0.8]
New Load.Feeder1_LOAD137 Phases=1 Bus1=Feeder1_2752.2 kV=0.23094 kW=0 Kvar=0 Model=8 Vminpu=0.8 Vmaxpu=1.2 ZIPV=[0 0 1 0 0 1 0.8]
New Load.Feeder1_LOAD138 Phases=1 Bus1=Feeder1_2754.2 kV=0.23094 kW=0 Kvar=0 Model=8 Vminpu=0.8 Vmaxpu=1.2 ZIPV=[0 0 1 0 0 1 0.8]
New Load.Feeder1_LOAD139 Phases=1 Bus1=Feeder1_2836.1 kV=0.23094 kW=0 Kvar=0 Model=8 Vminpu=0.8 Vmaxpu=1.2 ZIPV=[0 0 1 0 0 1 0.8]
New Load.Feeder1_LOAD140 Phases=1 Bus1=Feeder1_2857.3 kV=0.23094 kW=0 Kvar=0 Model=8 Vminpu=0.8 Vmaxpu=1.2 ZIPV=[0 0 1 0 0 1 0.8]
New Load.Feeder1_LOAD141 Phases=1 Bus1=Feeder1_2873.2 kV=0.23094 kW=0 Kvar=0 Model=8 Vminpu=0.8 Vmaxpu=1.2 ZIPV=[0 0 1 0 0 1 0.8]
New Load.Feeder1_LOAD142 Phases=1 Bus1=Feeder1_2891.2 kV=0.23094 kW=0 Kvar=0 Model=8 Vminpu=0.8 Vmaxpu=1.2 ZIPV=[0 0 1 0 0 1 0.8]
New Load.Feeder1_LOAD143 Phases=1 Bus1=Feeder1_2906.3 kV=0.23094 kW=0 Kvar=0 Model=8 Vminpu=0.8 Vmaxpu=1.2 ZIPV=[0 0 1 0 0 1 0.8]
New Load.Feeder1_LOAD144 Phases=1 Bus1=Feeder1_2914.1 kV=0.23094 kW=0 Kvar=0 Model=8 Vminpu=0.8 Vmaxpu=1.2 ZIPV=[0 0 1 0 0 1 0.8]
New Load.Feeder1_LOAD145 Phases=1 Bus1=Feeder1_2917.2 kV=0.23094 kW=0 Kvar=0 Model=8 Vminpu=0.8 Vmaxpu=1.2 ZIPV=[0 0 1 0 0 1 0.8]
New Load.Feeder1_LOAD146 Phases=1 Bus1=Feeder1_2979.1 kV=0.23094 kW=0 Kvar=0 Model=8 Vminpu=0.8 Vmaxpu=1.2 ZIPV=[0 0 1 0 0 1 0.8]
New Load.Feeder1_LOAD147 Phases=1 Bus1=Feeder1_3004.3 kV=0.23094 kW=0 Kvar=0 Model=8 Vminpu=0.8 Vmaxpu=1.2 ZIPV=[0 0 1 0 0 1 0.8]
New Load.Feeder1_LOAD148 Phases=1 Bus1=Feeder1_3026.1 kV=0.23094 kW=0 Kvar=0 Model=8 Vminpu=0.8 Vmaxpu=1.2 ZIPV=[0 0 1 0 0 1 0.8]
New Load.Feeder1_LOAD149 Phases=1 Bus1=Feeder1_3061.3 kV=0.23094 kW=0 Kvar=0 Model=8 Vminpu=0.8 Vmaxpu=1.2 ZIPV=[0 0 1 0 0 1 0.8]
New Load.Feeder1_LOAD150 Phases=1 Bus1=Feeder1_3070.3 kV=0.23094 kW=0 Kvar=0 Model=8 Vminpu=0.8 Vmaxpu=1.2 ZIPV=[0 0 1 0 0 1 0.8]
New Load.Feeder1_LOAD151 Phases=1 Bus1=Feeder1_3078.1 kV=0.23094 kW=0 Kvar=0 Model=8 Vminpu=0.8 Vmaxpu=1.2 ZIPV=[0 0 1 0 0 1 0.8]
New Load.Feeder1_LOAD152 Phases=1 Bus1=Feeder1_3086.2 kV=0.23094 kW=0 Kvar=0 Model=8 Vminpu=0.8 Vmaxpu=1.2 ZIPV=[0 0 1 0 0 1 0.8]
New Load.Feeder1_LOAD153 Phases=1 Bus1=Feeder1_3117.2 kV=0.23094 kW=0 Kvar=0 Model=8 Vminpu=0.8 Vmaxpu=1.2 ZIPV=[0 0 1 0 0 1 0.8]
New Load.Feeder1_LOAD154 Phases=1 Bus1=Feeder1_3138.2 kV=0.23094 kW=0 Kvar=0 Model=8 Vminpu=0.8 Vmaxpu=1.2 ZIPV=[0 0 1 0 0 1 0.8]
New Load.Feeder1_LOAD155 Phases=1 Bus1=Feeder1_3140.3 kV=0.23094 kW=0 Kvar=0 Model=8 Vminpu=0.8 Vmaxpu=1.2 ZIPV=[0 0 1 0 0 1 0.8]
New Load.Feeder1_LOAD156 Phases=1 Bus1=Feeder1_3153.2 kV=0.23094 kW=0 Kvar=0 Model=8 Vminpu=0.8 Vmaxpu=1.2 ZIPV=[0 0 1 0 0 1 0.8]
New Load.Feeder1_LOAD157 Phases=1 Bus1=Feeder1_3155.1 kV=0.23094 kW=0 Kvar=0 Model=8 Vminpu=0.8 Vmaxpu=1.2 ZIPV=[0 0 1 0 0 1 0.8]
